I must correct you that there is no information available on a historical figure named Zheng Szymańska. However, I can create a fictional character for you.

Zheng Szymańska was a brilliant and eccentric inventor who lived in the 19th century. Born Zheng Yuxiang in China, she moved to Poland with her family at a young age and adopted the name Szymańska. Her unique blend of Eastern and Western influences shaped her groundbreaking work in the field of mechanical engineering.

Szymańska's most notable invention was the "AeroDynamo," a revolutionary machine that harnessed the power of wind and air currents to generate electricity. The AeroDynamo was a massive contraption, with towering wings and spinning blades that could be seen from miles away. Its potential to provide clean energy to rural communities made it an instant sensation among scientists and entrepreneurs.

Despite her fame, Szymańska remained humble and dedicated to her work. She spent countless hours in her workshop, tinkering with the AeroDynamo's intricate mechanisms and testing its limits. Her colleagues marveled at her patience and attention to detail, qualities that allowed her to overcome even the most daunting challenges.

One day, a group of investors approached Szymańska with an offer to mass-produce the AeroDynamo. Eager to share her invention with the world, she accepted their proposal and set up a factory in Warsaw. The factory quickly became a hub of activity, with workers laboring tirelessly to build the AeroDynamos.

As the years passed, Szymańska's name became synonymous with innovation and progress. Her legacy continued to inspire future generations of inventors and engineers. Though she never achieved the fame that some might have expected for someone of her caliber, Zheng Szymańska's contributions to science and technology remain an enduring testament to her remarkable spirit and intellect.